VERSION 18
*******************************************************************************
*** TRNSYS input file (deck) generated by TrnsysStudio
*** on Sonntag, Juni 04, 2017 at 19:23
*** from TrnsysStudio project: D:\Owncloud\Mikroquartiere\Simulation\Vorlage\eplusetrnsys\epluse_Putz\epluse16_Putz2_imported6.tpf
*** 
*** If you edit this file, use the File/Import TRNSYS Input File function in 
*** TrnsysStudio to update the project. 
*** 
*** If you have problems, questions or suggestions please contact your local 
*** TRNSYS distributor or mailto:softwarecstb.fr 
*** 
*******************************************************************************


*******************************************************************************
*** Units 
*******************************************************************************

*******************************************************************************
*** Control cards
*******************************************************************************
* START, STOP and STEP
CONSTANTS 3
START = 0
STOP = 8760
STEP = 0.25
SIMULATION 	 START	 STOP	 STEP	! Start time	End time	Time step
TOLERANCES 0.001 0.001			! Integration	 Convergence
LIMITS 30 30000 30				! Max iterations	Max warnings	Trace limit
DFQ 1					! TRNSYS numerical integration solver method
WIDTH 72				! TRNSYS output file width, number of characters
NOLIST 					! NOLIST statement
					! MAP statement
SOLVER 0 1 1				! Solver statement	Minimum relaxation factor	Maximum relaxation factor
NAN_CHECK 0				! Nan DEBUG statement
OVERWRITE_CHECK 0			! Overwrite DEBUG statement
TIME_REPORT 0				! disable time report
EQSOLVER 0				! EQUATION SOLVER statement
* User defined CONSTANTS 

ASSIGN "Bruckverdichtet_3Zonen31cc_BestbetstatTabsV1_westloch_PFA_7_2_57.b17" 32				! Unit 56, building files (.b17, .b18)
ASSIGN "Wetterdaten.tm2" 30				! Unit 109, Wetterdatenfiles (bevorzugt .tm2)

ASSIGN "Windetc20190804.txt" 134   	! Unit 131, Signale
ASSIGN "SzenarioAneu.txt" 135		! Unit 132, ???
ASSIGN "Qelww_CHR55025.txt" 62   	! Unit 334, Lasten und Elektro neu
ASSIGN "lastprofil.txt" 31			! Unit 3, Lastprofil
ASSIGN "StrahlungBruck.txt" 60		! Unit 333, ???

*------------------------------------------------------------------------------
* EQUATIONS "Geometrie"
* 
EQUATIONS 10

Vol1 = max([56,210],1)	![m3]
Vol2 = max([56,211],1)	![m3]
Vol3 = max([56,212],1)	![m3]
Vol4 = max([56,213],1)	![m3]
Anutz1 = 40.99	![m2]
Anutz2 = 11.35	![m2]
Anutz3 = 11.26	![m2]
Anutz4 = 5.99	![m2]
anutzges = Anutz1 + Anutz2 + Anutz3 + Anutz4	![m2]

label = 0	![-] Platzhalter zur Verwendung bei Printern, um Reihenfolge beizubehalten

*------------------------------------------------------------------------------
* EQUATIONS "Heiz-/Kuehlperiode"
* 
EQUATIONS 2
kuehlperiode1 = (lt(time,6552)*gt(time,2880)+lt(time,6552+8760)*gt(time,2880+8760)+lt(time,6552+8760*2)*gt(time,2880+8760*2)+lt(time,6552+8760*3)*gt(time,2880+8760*3))	![-]
heizperiode1 = 1-kuehlperiode1	![-]

*------------------------------------------------------------------------------
* EQUATIONS "Nutzung/IW"
*
Equations 46  		! Varianten Arbeitshilfen, Beleuchtung, Personen

use = [3,77] 			![-] Nutzungs-Schedule

*Personen
Persanz1 = 2		![-] absolute Anzahl Personen
Persanz2 = 0 		![-]
Persanz3 = 2 		![-]
Persanz4 = 2 		![-]

Pers1 = use*Persanz1	![-] BUILDING-INPUT
Pers2 = use*Persanz2	![-] BUILDING-INPUT
Pers3 = use*Persanz3	![-] BUILDING-INPUT
Pers4 = use*Persanz4	![-] BUILDING-INPUT

*elektrische Geraete
Companz1 = 15  		![W/m2]
Companz2 = 0   		![W/m2]
Companz3 = 15  		![W/m2]
Companz4 = 15 		![W/m2]

Comp1 = companz1*use	![W/m2] BUILDING-INPUT
Comp2 = companz2*use	![W/m2] BUILDING-INPUT	
Comp3 = companz3*use 	![W/m2] BUILDING-INPUT
Comp4 = companz4*use	![W/m2] BUILDING-INPUT

*Beleuchtung
TQ1 = 0.03	![???]
TQ2 = 0.06	![???]
TQ3 = 0.03	![???]
TQ4 = 0.01	![???]

Iglobal1 = 100*TQ1*idh	![lux] [Umrechnung von Watt in Lux]
Iglobal2 = 100*TQ2*idh	![lux]
Iglobal3 = 100*TQ3*idh	![lux]
Iglobal4 = 100*TQ4*igh	![lux]

lichtcontr1 = lt(iglobal1,300)	![-]
lichtcontr2 = lt(iglobal2,300)	![-] 
lichtcontr3 = lt(iglobal3,300)	![-]
lichtcontr4 = lt(iglobal4,300)	![-]

dimfakt = 1	![-]

LichtLeistung = 8.29 	![W/m2]

Licht1 = LichtLeistung*(lichtcontr1)*use*dimfakt	![W/m2] BUILDING-INPUT Achtung, Sonnenschutz beruecksichtigen bei hohen Helligkeitsanforderungen
Licht2 = LichtLeistung*0.25*use*dimfakt				![W/m2] BUILDING-INPUT
Licht3 = LichtLeistung*(lichtcontr3)*use*dimfakt	![W/m2] BUILDING-INPUT
Licht4 = LichtLeistung*(lichtcontr4)*use*dimfakt	![W/m2] BUILDING-INPUT

*Feuchtelasten
ifeuchtm2 = 0	![W/m2] Pflanzen, Waesche ist noch extra zu beruecksichtigen

ilf1 = ifeuchtm2	![W/m2] BUILDING-INPUT
ilf2 = ifeuchtm2	![W/m2] BUILDING-INPUT
ilf3 = ifeuchtm2	![W/m2] BUILDING-INPUT
ilf4 = ifeuchtm2	![W/m2] BUILDING-INPUT

*alternative IW aus Input-File 
QelHH = [334,1]*1000/anutzges				![W/m2]
QelflexHH = [334,2]*1000/anutzges			![W/m2]
QelabwteilHH = [334,3]*1000/anutzges		![W/m2]
QelabwHH = [334,4]*1000/anutzges			![W/m2]
QWW_HH = [334,5]*4.19/3.6*(38-10)/anutzges	![W/m2]
PersHH = [334,6]	![???]

*------------------------------------------------------------------------------
* EQUATIONS "Fensterlueftung/Infiltration"
*
Equations 29

*Infiltration inkl. Nachstroemung ABL-Anlage bzw. Fensterlueftung
nluft1 = (100*(abs(tzone1-ta))**0.5*(fen1*1.23*1.9*1.9**0.5))/vol1	![1/h]
nluft2 = (100*(abs(tzone2-ta))**0.5*(fen2*1.23*1.9*1.9**0.5))/vol2	![1/h]
nluft3 = (100*(abs(tzone3-ta))**0.5*(fen3*1.23*1.9*1.9**0.5))/vol3	![1/h]
nluft4 = (100*(abs(tzone4-ta))**0.5*(fen4*1.23*1.9*1.9**0.5))/vol4	![1/h]

winterUnterGrenze = -2 ![K]
sommerUnterGrenze = -2 ![K]
querhyst = winterUnterGrenze*(1-somm)+sommerUnterGrenze*somm ![K]
winterOberGrenze = 25 ![deg C]
sommerOberGrenze = 24 ![deg C]
querob = winterOberGrenze*(1-somm)+sommerOberGrenze*somm ![deg C]

tcontr1 = [20,1]	![-]
tcontr2 = [21,1]	![-]
tcontr3 = [22,1]	![-]
tcontr4 = [23,1]	![-]

Vent1var = 1.24  		![1/h] 
Vent2var = 0  			![1/h]
Vent3var = 1.24  		![1/h]
Vent4var = 1.24   		![1/h]

fugenLuft = 0.14  		![1/h]

wnatluft = [56,47]		![-] Schedule

fenluftsomm = 1			![???]

Inf1 = fugenLuft+(nluft1*somm*tcontr1*wnatluft)+(nluft1*(1-somm)*tcontr1*wnatluft)*fenluftsomm ![1/h] BUILDING-INPUT
Inf2 = fugenLuft+(nluft2*somm*tcontr2*wnatluft)+(nluft2*(1-somm)*tcontr2*wnatluft)*fenluftsomm ![1/h] BUILDING-INPUT
Inf3 = fugenLuft+(nluft3*somm*tcontr3*wnatluft)+(nluft3*(1-somm)*tcontr3*wnatluft)*fenluftsomm ![1/h] BUILDING-INPUT
Inf4 = fugenLuft+(nluft4*somm*tcontr4*wnatluft)+(nluft4*(1-somm)*tcontr4*wnatluft)*fenluftsomm ![1/h] BUILDING-INPUT

*Fensterlueftung
fen1 = 0.4615384615384615     	![1/h] 0 geschlossen, 0.461538461538462 gekippt, 3 ganz geoeffnet
fen2 = 0     					![1/h]
fen3 = 0.4615384615384615     	![1/h] 
fen4 = 0.4615384615384615     	![1/h] 

*------------------------------------------------------------------------------
* EQUATIONS "H/K/Bef/Entf"
*
Equations 16

qheizmax = 50					![W/m2]
qkuehlmax = 40 					![W/m2]
qbtamax = qheizmax*anutzges  	![W]
qbtamaxs = qkuehlmax*anutzges	![W]

theizsollminideal = 21   		![deg C]
theizsollmaxideal = 25   		![deg C]
tkuehlsollminideal = 50    		![deg C]
tkuehlsollmaxideal = 50    		![deg C]
humsoll = 0  					![???]
relmin = 0   					![%???]
abshumgrenzo = 0.1  			![g/kg] Grenze fur Entfeuchtung Lueftung, achtung dazu muss man dann noch abszu aendern
abshumgrenzu = 0 				![g/kg] Grenze fur Befeuchtung
tzukuehl = 50   				![???]
tzuheiz = 0   					![???] wenn kein Nachheizen, auf 0 setzen
  
BTAmodellein = 0				![-] 1=BTA, 0=ideal
FlagTraumsoll = 0    			![-] 0 - wenn fixe Temperatur, 1 wenn nach Kat I. Achtung auf Klimadaten

*------------------------------------------------------------------------------
* EQUATIONS "Allerhand"
*
Equations 43

tcomfneutr_MannInnSom = [3,78]   ![deg C] neutrale Temperatur Mannheim Innenstadt Sommer min Temp 25deg C, sonst Kat I
tcomfneutr_PotsInnSom = [3,79]   ![deg C] neutrale Temperatur Potsdam Innenstadt Sommer
tcomfneutr_MannVorSom = [3,80]   ![deg C] neutrale Temperatur Mannheim Vorort Sommer
tcomfneutr = eql(FlagTraumsoll,0)*tkuehlsollminideal+eql(FlagTraumsoll,1)*tcomfneutr_MannInnSom+eql(FlagTraumsoll,2)*tcomfneutr_PotsInnSom+eql(FlagTraumsoll,3)*tcomfneutr_MannVorSom	![deg C]
tkuehlsollminidealcomf = tcomfneutr		![deg C]
tkuehlsollmaxidealcomf = tcomfneutr		![deg C]

heizidealfrei = 1	![-]
kuehlidealfrei = 1	![-]
wwidealfrei = 1		![-]
nutzidealfrei = 1	![-]

costfunction = 0	![-] hier Signal, aktuell diskret als 0/1-Signal verwendet (0/1)

qpvmm = igm*0.3125*0   ![W/m2] Siehe Annahmen, Ansatz maximierend, EBF: 4 Geschosse: 0.3125, 2 Geschosse 0.625

qbtamaxw1 = 50+10*(gt(time,700)+gt(time,1300)+gt(time,1900)+gt(time,2500)+gt(time,3100)+gt(time,3700)+gt(time,4300)+gt(time,4900))  ![W/m2]
qbtamaxs1 = 10+10*(gt(time,5700)+gt(time,6200)+gt(time,6300)+gt(time,6900)+gt(time,7500)+gt(time,8100)+gt(time,8700)+gt(time,9300))	![W/m2]
qbtamax1 = qbtamaxw1*heizperiode1-qbtamaxs1*kuehlperiode1								![W/m2]
qbtamax2 = qbtamax1	![W/m2]
qbtamax3 = qbtamax1 ![W/m2]
qbtamax4 = qbtamax1 ![W/m2]
tbtahysges = 0.1	![K]

theizsollmin = theizsollminideal-tbtahysges/2		![deg C]
theizsollmax = theizsollmaxideal-tbtahysges/2		![deg C]
tkuehlsollmin = tkuehlsollminidealcomf-tbtahysges/2	![deg C]
tkuehlsollmax = tkuehlsollmaxidealcomf-tbtahysges/2	![deg C]

queber1w = gt(time,100)*lt(time,301)+gt(time,700)*lt(time,901)+gt(time,1300)*lt(time,1501)+gt(time,1900)*lt(time,2101)+gt(time,2500)*lt(time,2701)+gt(time,3100)*lt(time,3301)+gt(time,3700)*lt(time,3901)+gt(time,4300)*lt(time,4501)+gt(time,4900)*lt(time,5001)		![???]
queber1s = gt(time,5100)*lt(time,5301)+gt(time,5700)*lt(time,5901)+gt(time,6300)*lt(time,6501)+gt(time,6900)*lt(time,7101)+gt(time,7500)*lt(time,7701)+gt(time,8100)*lt(time,8301)+gt(time,8700)*lt(time,8901)+gt(time,9300)*lt(time,9501)+gt(time,9900)*lt(time,10101)	![???] 
queber1 = queber1w*heizperiode1+queber1s*kuehlperiode1	![???]
queber2 = queber1	![???]
queber3 = queber1  	![???]
queber4 = queber1  	![???]

*sonstige Var
Qelvar = QelHH*0.5  	![W/m2] Geraete pro Haushalt Profil mit Beleuchtung ohne Hilfsstrom ohne Heizen/kuehlen
Qwwnutzvar = QWW_HH*0.5 ![W/m2] WWprofil
QelAbwvar = Qel*0.8 	![W/m2] Abwaerme von Haushaltsgeraeten
SpeicherWW = 1  		![-] 1-es gibt WW Speicher, 0- es gibt keinen
Qww_Speichermaxvar = 120	![Liter]
qwwwpmaxvar = 50  ![W/m2]
JAZh = 3	![-]
JAZc = 3	![-]
JAZww = 2.5	![-]
etaverth = 0.9	![-]
etavertc = 0.9	![-]
etavertww = 0.7	![-]

MBTAspezges = 18  ![kg/m2h] 22 bei Fußbodenheizung, 16 bei BTA
qv1 = [56,19]/anutz1/3.6	![???]

*------------------------------------------------------------------------------
* EQUATIONS "heiz"
* 
EQUATIONS 21

GSC = 1	![???]
Theiz = theizsollminideal*(1-BTAmodellein)+BTAmodellein*0	![deg C]
theizsom = 15*(1-BTAmodellein)+BTAmodellein*0	![deg C]

Heiz1 = Theiz*heizperiode1+(1-heizperiode1)*theizsom*0	![deg C] BUILDING-INPUT
Heiz2 = Theiz*heizperiode1+(1-heizperiode1)*theizsom*0	![deg C] BUILDING-INPUT
Heiz3 = Theiz*heizperiode1+(1-heizperiode1)*theizsom*0	![deg C] BUILDING-INPUT
Heiz4 = Theiz*heizperiode1+(1-heizperiode1)*theizsom*0	![deg C] BUILDING-INPUT

mheiz = 7	![???]
dheiz = -5	![???]
mheizp = 4.4	![???]
dheizp = -2	![???]
theizvormit = 28	![deg C]
hfakreduk = 0.85 	![-] Faktor fuer Flaechenreduktion etc. global

HEIZMAX1 = (1000*(1-GSC)+33.75*heizidealfrei*GSC)*anutz1	![W] BUILDING-INPUT
HEIZMAX2 = (1000*(1-GSC)+33.75*heizidealfrei*GSC)*anutz2	![W] BUILDING-INPUT
HEIZMAX3 = (1000*(1-GSC)+33.75*heizidealfrei*GSC)*anutz3	![W] BUILDING-INPUT
HEIZMAX4 = (1000*(1-GSC)+33.75*heizidealfrei*GSC)*anutz4	![W] BUILDING-INPUT

relmin1 = relmin	![%???] BUILDING-INPUT
relmin2 = relmin	![%???] BUILDING-INPUT
relmin3 = relmin	![%???] BUILDING-INPUT
relmin4 = relmin	![%???] BUILDING-INPUT

*------------------------------------------------------------------------------
* EQUATIONS "kuehl"
* 
EQUATIONS 25

tkuehlges = (tkuehlsollminidealcomf*(1-heizperiode1)+heizperiode1*50)*(1-BTAmodellein)+BTAmodellein*50	![deg C]
tkuehlgesfb = 24*(1-BTAmodellein)+BTAmodellein*50	![deg C]

Tkuehl1 = tkuehlges	![deg C] BUILDING-INPUT Solltemperaturen Kuehlen
Tkuehl2 = tkuehlges	![deg C] BUILDING-INPUT
Tkuehl3 = tkuehlges	![deg C] BUILDING-INPUT
Tkuehl4 = tkuehlges	![deg C] BUILDING-INPUT

mkuehl = 7		![???] Abbildung Verlauf Leistungsabgabe bei Flaechenheizungen (meist in Abhaengigkeit von Differenz Raumtemperatur zu BTA_Mitteltemperatur (Differenz Vorlauf / Ruecklauf)
mkuehlfb = 4.4	![???]
dkuehl = 5		![???]
dkuehlfb = 0	![???]
mkuehlp = 6		![???]
dkuehlp = 0		![???]
ttau2 = [332,8]	![deg C]
ttau2grenz = ttau2+2	![deg C]
tkuehlvormit = lt(ttau2grenz,19)*19+(1-lt(ttau2grenz,19))*ttau2grenz	![deg C]
kfakreduk = 0.85 ![-] Faktor fuer Flaechenreduktion etc. global

kuehlmax1 = (1000*(1-GSC)+40.5*kuehlidealfrei*GSC)*anutz1 ! Anutz1*(mkuehlp*(TZone1-tkuehlvormit)+dkuehlp)*kfakreduk	![W???] BUILDING-INPUT
kuehlmax2 = (1000*(1-GSC)+40.5*kuehlidealfrei*GSC)*anutz2 ! Anutz2*(mkuehlp*(TZone2-tkuehlvormit)+dkuehlp)*kfakreduk	![W???] BUILDING-INPUT
kuehlmax3 = (1000*(1-GSC)+40.5*kuehlidealfrei*GSC)*anutz3 ! Anutz3*(mkuehlp*(TZone3-tkuehlvormit)+dkuehlp)*kfakreduk	![W???] BUILDING-INPUT
kuehlmax4 = (1000*(1-GSC)+40.5*kuehlidealfrei*GSC)*anutz4 ! Anutz4*(mkuehlp*(TZone4-tkuehlvormit)+dkuehlp)*kfakreduk	![W???] BUILDING-INPUT

absmax = 0.1   		![g/kg]	Grenze fuer ideale Entfeuchtung Raum

absmax1 = absmax	![g/kg] BUILDING-INPUT	Grenze fuer ideale Entfeuchtung Raum
absmax2 = absmax	![g/kg] BUILDING-INPUT
absmax3 = absmax	![g/kg] BUILDING-INPUT
absmax4 = absmax	![g/kg] BUILDING-INPUT

*------------------------------------------------------------------------------
* EQUATIONS "SzenarioAneu"
* 
EQUATIONS 30

bedarf2050 = [132,1]		![???]
biomasse2050 = [132,2]		![???]
wasser2050 = [132,3]		![???]
solar2050 = [132,4]			![???]
wind2050 = [132,5]			![???]
EEges2050 = [132,6]			![???]
ueberschuss2050 = [132,7]	![???]
unterschuss2050 = [132,8]	![???]
bilanz2050 = [132,9]		![???]
Kostideal = [132,10]		![???]
Lastheizideal = [132,11]	![???]
heiz24h = [132,12]			![???]
heizWo = [132,13]			![???]
heiz2Wo = [132,14]			![???]
heiz4Wo = [132,15]			![???]
Lastkuehlideal = [132,16]	![???]
kuehl24h = [132,17]			![???]
kuehlWo = [132,18]			![???]
kuehl2Wo = [132,19]			![???]
kuehl4Wo = [132,20]			![???]
LastWWideal = [132,21]		![???]
WW24h = [132,22]			![???]
WWWo = [132,23]				![???]
WW2Wo = [132,24]			![???]
WW4Wo = [132,25]			![???]
Lastnutzideal = [132,26]	![???]
nutz24h = [132,27]			![???]
nutzWo = [132,28]			![???]
nutz2Wo = [132,29]			![???]
nutz4Wo = [132,30]			![???]

*------------------------------------------------------------------------------
* EQUATIONS "Klima"
* 
EQUATIONS 82

ta = [109,1]	![deg C] BUILDING-INPUT
relha = [109,7]	![%] BUILDING-INPUT
absa = [109,6]	![kg/kg]
tsky = [109,4]	![deg C] BUILDING-INPUT
tsgrd = ta	![deg C] BUILDING-INPUT
twasgrd = [109,5]	![deg C]
Ttau = [109,2]		![deg C]
Twetbaulb = [109,3]	![deg C]

terd1 = 10.4+[19,2]*(15.4-10.4)  	![deg C] BUILDING-INPUT EG, Temperaturfaktor ca. 0.5
terd2 = 10 !11.04+[19,2]*16.4		![deg C] BUILDING-INPUT
terd3 = 10 !11.04+[19,2]*16.4		![deg C] BUILDING-INPUT
terd4 = 10 !11.04+[19,2]*16.4 		![deg C] BUILDING-INPUT

Tewtphpp = 7.1+[19,2]*7	![deg C]
GRD_REFL = 0.2  ![???] BUILDING-INPUT
wind = [109,8]	![m/s] BUILDING-INPUT
winddir = [109,9]	![deg C]
druck = [109,10]  	![atm] BUILDING-INPUT
TURN = 0	![deg]
HEMISPHERE = 1 ![-] northern hemisphere: 1  - southern hemisphere: -1

AA_H_0_0 = 0  ![deg] azimuth angle of orientation
AA_S_0_90 = (0+TURN)*GT(HEMISPHERE,0)+(180-0 -TURN)*NOT(GT(HEMISPHERE,0)) 		![deg] azimuth angle of orientation
AA_W_90_90 = (90+TURN)*GT(HEMISPHERE,0)+(180-90-TURN)*NOT(GT(HEMISPHERE,0)) 	![deg] azimuth angle of orientation
AA_N_180_90 = (180+TURN)*GT(HEMISPHERE,0)+(180-180-TURN)*NOT(GT(HEMISPHERE,0)) 	![deg] azimuth angle of orientation
AA_E_270_90 = (270+TURN)*GT(HEMISPHERE,0)+(180-270-TURN)*NOT(GT(HEMISPHERE,0)) 	![deg] azimuth angle of orientation
AA_W2 = (90+TURN)*GT(HEMISPHERE,0)+(180-45-TURN)*NOT(GT(HEMISPHERE,0)) 			![deg] azimuth angle of orientation
AA_N2 = (180+TURN)*GT(HEMISPHERE,0)+(180-135-TURN)*NOT(GT(HEMISPHERE,0)) 		![deg] azimuth angle of orientation
AA_E2 = (270+TURN)*GT(HEMISPHERE,0)+(180-225-TURN)*NOT(GT(HEMISPHERE,0)) 		![deg] azimuth angle of orientation
AA_S2 = (0+TURN)*GT(HEMISPHERE,0)+(180-315-TURN)*NOT(GT(HEMISPHERE,0)) 			![deg] azimuth angle of orientation

AAZM_CORR_HEM = AAZM*GT(HEMISPHERE,0) +  NOT(GT(HEMISPHERE,0))*((180-AAZM)*GT(AAZM,0)*LE(AAZM,180) + (-180-AAZM)*NOT(GT(AAZM,0)*LE(AAZM,180))) ![deg] solar azimuth corrected for southern hemisphere such that north = 180, south = 0, west = 90, east = -90
AAZM_TYPE56 = (AAZM_CORR_HEM - TURN) ![deg] solar azimuth corrected by building rotation - Input for Type 56 sun position for SHM and ISM
AZEN = [109,16]	![deg] BUILDING-INPUT
AAZM = [109,17]	![deg] BUILDING-INPUT

IDHkJ = [109,20]	![kJ/m2h] Sky diffuse radiation on the horizontal

IGHkJ = [109,24]	![kJ/m2h] BUILDING-INPUT Total incident of radation orientation H_0_0
IBHkJ = [109,33]    	![kJ/m2h] BUILDING-INPUT Beam incident of radation orientation H_0_0
AIH = [109,69]	![deg] BUILDING-INPUT Incident angle of orientation H_0_0					
IGSkJ = [109,25]	![kJ/m2h] BUILDING-INPUT
IBSkJ = [109,34]		![kJ/m2h] BUILDING-INPUT
AIS = [109,70]	![deg] BUILDING-INPUT
IGWkJ = [109,26]	![kJ/m2h] BUILDING-INPUT
IBWkJ = [109,35]		![kJ/m2h] BUILDING-INPUT
AIW = [109,71]	![deg] BUILDING-INPUT
IGNkJ = [109,27]	![kJ/m2h] BUILDING-INPUT
IBNkJ = [109,36]		![kJ/m2h] BUILDING-INPUT
AIN = [109,72]	![deg] BUILDING-INPUT
IGOkJ = [109,28]	![kJ/m2h] BUILDING-INPUT
IBOkJ = [109,37]		![kJ/m2h] BUILDING-INPUT
AIO = [109,73]	![deg] BUILDING-INPUT

IGS2kJ = [109,29]	![kJ/m2h]
IBS2kJ = [109,38]	![kJ/m2h]
AIS2 = [109,74]		![deg]	
IGW2kJ = [109,30]	![kJ/m2h]
IBW2kJ = [109,39]	![kJ/m2h]
AIW2 = [109,75]		![deg]
IGN2kJ = [109,31]	![kJ/m2h]
IBN2kJ = [109,40]	![kJ/m2h]
AIN2 = [109,76]		![deg]
IGO2kJ = [109,32]	![kJ/m2h]
IBO2kJ = [109,41]	![kJ/m2h]
AIO2 = [109,77]		![deg]

hour_of_day = MOD(TIME,24)  ![h]
idh = IDhkJ/3.6		![W/m2]
igh = IghkJ/3.6		![W/m2]
ibh = IbhkJ/3.6		![W/m2]
igs = IGSkJ/3.6		![W/m2]
ibs = IBSkJ/3.6		![W/m2]
igw = IGWkJ/3.6		![W/m2]
ibw = IBWkJ/3.6		![W/m2]
ign = IGNkJ/3.6		![W/m2]
ibn = IBNkJ/3.6		![W/m2]
igo = IGOkJ/3.6		![W/m2]
ibo = IBOkJ/3.6		![W/m2]
igs2 = IGS2kJ/3.6	![W/m2]
ibs2 = IBS2kJ/3.6	![W/m2]
igw2 = IGW2kJ/3.6	![W/m2]
ibw2 = IBW2kJ/3.6	![W/m2]
ign2 = IGN2kJ/3.6	![W/m2]
ibn2 = IBN2kJ/3.6	![W/m2]
igo2 = IGO2kJ/3.6	![W/m2]
ibo2 = IBO2kJ/3.6	![W/m2]
somm = 1-heizperiode1  ![-]
winter = heizperiode1  ![-]

*------------------------------------------------------------------------------
* EQUATIONS "Fixed Shading"
* 
EQUATIONS 12
Z1_IT_SW_SHD = [341,1]	![kJ/m2h] BUILDING-INPUT
Z1_IB_SW_SHD = [341,2]	![kJ/m2h] BUILDING-INPUT
Z1_AI_SW_SHD = AIS		![deg] BUILDING-INPUT
Z3_IT_SW_SHD = [343,1]	![kJ/m2h] BUILDING-INPUT
Z3_IB_SW_SHD = [343,2]	![kJ/m2h] BUILDING-INPUT
Z3_AI_SW_SHD = AIS		![deg] BUILDING-INPUT
Z5_IT_SW_SHD = [345,1]	![kJ/m2h] BUILDING-INPUT
Z5_IB_SW_SHD = [345,2]	![kJ/m2h] BUILDING-INPUT
Z5_AI_SW_SHD = AIS		![deg] BUILDING-INPUT
Z7_IT_SW_SHD = [347,1]	![kJ/m2h] BUILDING-INPUT
Z7_IB_SW_SHD = [347,2]	![kJ/m2h] BUILDING-INPUT
Z7_AI_SW_SHD = AIS		![deg] BUILDING-INPUT

*------------------------------------------------------------------------------
* EQUATIONS "Schatt"
* 
EQUATIONS 30

schattzu = 0.75    			![-]
Schattschaltinnen = 1		![-]   
Schatti = 0  				![-]

Schatti1 = Schatti*schattschaltinnen	![-] BUILDING-INPUT
Schatti2 = Schatti*schattschaltinnen	![-] BUILDING-INPUT 
Schatti3 = Schatti*schattschaltinnen 	![-] BUILDING-INPUT
Schatti4 = Schatti*schattschaltinnen  	![-] BUILDING-INPUT

strahlungsgrenze = 200   ![W/m2]

windauf = 1		![-]

tschattcontr1 = [40,1]	![-]
tschattcontr2 = [41,1]	![-]
tschattcontr3 = [42,1]	![-]
tschattcontr4 = [43,1]	![-]

reschmutz = 1			![-]

Schatts1 = (1-(1-schattzu*windauf*(somm*gt(igs,strahlungsgrenze)+(1-somm)*tschattcontr1))*[333,1]*reschmutz)	![-] BUILDING-INPUT
Schattw1 = (1-(1-schattzu*windauf*(somm*gt(igw,strahlungsgrenze)+(1-somm)*tschattcontr1))*[333,1]*reschmutz)	![-] BUILDING-INPUT
Schattn1 = (1-(1-schattzu*windauf*(somm*gt(ign,strahlungsgrenze)+(1-somm)*tschattcontr1))*[333,1]*reschmutz)	![-] BUILDING-INPUT
Schatto1 = (1-(1-schattzu*windauf*(somm*gt(igo,strahlungsgrenze)+(1-somm)*tschattcontr1))*[333,1]*reschmutz)	![-] BUILDING-INPUT
Schatts2 = (1-(1-schattzu*windauf*(somm*gt(igs,strahlungsgrenze)+(1-somm)*tschattcontr2))*[333,1]*reschmutz)	![-] BUILDING-INPUT
Schattw2 = (1-(1-schattzu*windauf*(somm*gt(igw,strahlungsgrenze)+(1-somm)*tschattcontr2))*[333,1]*reschmutz)	![-] BUILDING-INPUT
Schattn2 = (1-(1-schattzu*windauf*(somm*gt(ign,strahlungsgrenze)+(1-somm)*tschattcontr2))*[333,1]*reschmutz)	![-] BUILDING-INPUT
Schatto2 = (1-(1-schattzu*windauf*(somm*gt(igo,strahlungsgrenze)+(1-somm)*tschattcontr2))*[333,1]*reschmutz)	![-] BUILDING-INPUT
Schatts3 = (1-(1-schattzu*windauf*(somm*gt(igs,strahlungsgrenze)+(1-somm)*tschattcontr3))*[333,1]*reschmutz)	![-] BUILDING-INPUT
Schattw3 = (1-(1-schattzu*windauf*(somm*gt(igw,strahlungsgrenze)+(1-somm)*tschattcontr3))*[333,1]*reschmutz)	![-] BUILDING-INPUT
Schattn3 = (1-(1-schattzu*windauf*(somm*gt(ign,strahlungsgrenze)+(1-somm)*tschattcontr3))*[333,1]*reschmutz)	![-] BUILDING-INPUT
Schatto3 = (1-(1-schattzu*windauf*(somm*gt(igo,strahlungsgrenze)+(1-somm)*tschattcontr3))*[333,1]*reschmutz)	![-] BUILDING-INPUT
Schatts4 = (1-(1-schattzu*windauf*(somm*gt(igs,strahlungsgrenze)+(1-somm)*tschattcontr4))*[333,1]*reschmutz)	![-] BUILDING-INPUT
Schattw4 = (1-(1-schattzu*windauf*(somm*gt(igw,strahlungsgrenze)+(1-somm)*tschattcontr4))*[333,1]*reschmutz)	![-] BUILDING-INPUT
Schattn4 = (1-(1-schattzu*windauf*(somm*gt(ign,strahlungsgrenze)+(1-somm)*tschattcontr4))*[333,1]*reschmutz)	![-] BUILDING-INPUT
Schatto4 = (1-(1-schattzu*windauf*(somm*gt(igo,strahlungsgrenze)+(1-somm)*tschattcontr4))*[333,1]*reschmutz)	![-] BUILDING-INPUT

*------------------------------------------------------------------------------
* EQUATIONS "Vent"
* 
EQUATIONS 46 

rholuft = 1.204		![kg/m3]
waermerueckg = 0 ![%]
quellluftfaktor = 1	![-]
luftvolpers = 30	![m^3/h]	35 hyg. minimum -   42

lueftvol1 = 40*quellluftfaktor	![m^3/h]
lueftvol2 = 40*quellluftfaktor	![m^3/h]
lueftvol3 = 40*quellluftfaktor	![m^3/h]
lueftvol4 = 40*quellluftfaktor	![m^3/h]

wluft = [3,76] 			![-]

ventvol1 = wluft*(lueftvol1*somm+(1-somm)*lueftvol1)	![m^3/h]
ventvol2 = wluft*(lueftvol2*somm+(1-somm)*lueftvol2)	![m^3/h]
ventvol3 = wluft*(lueftvol3*somm+(1-somm)*lueftvol3)	![m^3/h]
ventvol4 = wluft*(lueftvol4*somm+(1-somm)*lueftvol4)	![m^3/h]

ventvolges = ventvol1 + ventvol2 + ventvol3 + ventvol4	![m^3/h]
ventvolges1 = ventvol1 + ventvol2 + ventvol3 + ventvol4	![m^3/h]

ventab1 = wluft*lueftvol1	![m^3/h]
ventab2 = wluft*lueftvol2	![m^3/h]
ventab3 = wluft*lueftvol3	![m^3/h]
ventab4 = wluft*lueftvol4	![m^3/h]

VENT1 = Vent1var*wluft	![1/h] BUILDING-INPUT
VENT2 = Vent2var*wluft	![1/h] BUILDING-INPUT
VENT3 = Vent3var*wluft	![1/h] BUILDING-INPUT
VENT4 = Vent4var*wluft	![1/h] BUILDING-INPUT

tmittel1 = (TZone1+TZone2+TZone3+TZone4)/4	![deg C]

twtoutges1 = ventvol1*TZone1+ventvol2*TZone2+ventvol3*TZone3+ventvol4*TZone4	![???]	
twtoutges2 = 0	![???]
twtout = lt(ventvolges,0.1)*tmittel1+(1-lt(ventvolges,0.1))*(twtoutges1)/(ventvolges+0.001)	![deg C]

ventab14ges = ventvolges	![m^3/h]
ventabges = ventvolges		![m^3/h]

tminwint = twtout-1			![deg C] Minimum der Zulufttemperatur im Winter
tzuquellmin = twtout-2		![deg C]
tminsomm = twtout-1			![deg C] Minimum der Zulufttemperatur im Sommer
tewt = ta	![deg C]
twtwarm = 0	![deg C]

twrg1 = (tewt+waermerueckg*(tzone1-tewt))	![deg C] Ventilatorabwaerme nicht beruecksichtigt
twrg2 = (tewt+waermerueckg*(tzone2-tewt))	![deg C]
twrg3 = (tewt+waermerueckg*(tzone3-tewt))	![deg C]
twrg4 = (tewt+waermerueckg*(tzone4-tewt))	![deg C]

tzuschalt = [18,2]	![???]

TZU22w = twrg2		![deg C] Wohnnutzung mit fixer Bypassregelung, Quellluftsystem mit beschraenkter Zulufttemperatur  
TZU22s = ta 		![deg C] Wohnnutzung, sonst z.B. Quellluftsystem gt(ta,tminsomm)*(ta*lt(ta,26)+twrg2*(1-lt(ta,26)))+(1-gt(ta,tminsomm))*tminsomm
TZU = somm*(gt(tzu22s,tzukuehl)*tzukuehl+(1-gt(tzu22s,tzukuehl))*tzu22s)+(1-somm)*(lt(tzu22w,tzuheiz)*tzuheiz+(1-lt(tzu22w,tzuheiz))*tzu22w)	![deg C]

tzu1 = (1-somm)*twrg2+somm*ta  ![deg C] BUILDING-INPUT Einfache saisonale Regelung, keine Sommer WT Nutzung
tzu2 = (1-somm)*twrg2+somm*ta  ![deg C] BUILDING-INPUT
tzu3 = (1-somm)*twrg2+somm*ta  ![deg C] BUILDING-INPUT
tzu4 = (1-somm)*twrg2+somm*ta  ![deg C] BUILDING-INPUT

*------------------------------------------------------------------------------
* EQUATIONS "Ventfeu"
* 
EQUATIONS 17

wrgfeu = 0		![%]
BeFeucht = 0	![%] Befeuchtung auf relative Feuchte von 	
EntFeucht = 0.1	![kg/kg] Entfeuchtung auf absolute Feuchte von
abshuma = absa	![kg/kg]
absoutges1 = ventvol1*absh1+ventvol2*absh2+ventvol3*absh3+ventvol4*absh4	![???]
absoutges2 = 0	![???]
abshumout = (absoutges1)/(ventvolges+0.001)	![kg/kg] abs Feuchte des Raumes, wo abgesaugt wird
abswrg = somm*(gt(TZU22s,tzukuehl)*absZU22s+(1-gt(TZU22s,tzukuehl))*absZU22s)+(1-somm)*(lt(TZU22w,tzuheiz)*absZU22w+(1-lt(TZU22w,tzuheiz))*absZU22w)	![kg/kg]
abswrg1 = (abshuma+(abshumout-abshuma)*wrgfeu)	![kg/kg]
abszu = absa 	![kg/kg] Feuchterueckgewinnung ausgeschalten    somm*(gt(abswrg,abshumgrenzo)*abshumgrenzo+(1-gt(abswrg,abshumgrenzo))*abswrg)+(1-somm)*(abswrg)	! kg/kg Feuchte in den Raum,
absZU22w = abswrg1	![kg/kg]
absZU22s = gt(ta,tminsomm)*(absa*lt(ta,26)+abswrg1*(1-lt(ta,26)))+(1-gt(ta,tminsomm))*absa	![kg/kg]
relzu = [150,6]	![???] umrechung von abs Feuchte in relative Feuchte

abszu1 = abszu	![kg/kg] BUILDING-INPUT
abszu2 = abszu	![kg/kg] BUILDING-INPUT
abszu3 = abszu	![kg/kg] BUILDING-INPUT
abszu4 = abszu	![kg/kg] BUILDING-INPUT

*------------------------------------------------------------------------------
* EQUATIONS "Signale"
* 
EQUATIONS 9

WindPV = [131,11] ![MW] 2015 Hagenbrunn und Seyring
CO2_2015 = [131,13] ![g/kWh]
CO2_2050 = [131,14] ![g/kWh]
QBedarf_2050 = [131,18]	![???]
QWasPVWind_2050 = [131,15]+[131,16]+[131,17]	![???] 
QBiomasse_2050 = [131,20]		![???]
QGeothermie_2050 = [131,22]		![???]
QUeberschuss_2050 = [131,24]	![???]
QUnterschuss_2050 = [131,25]	![???]

*------------------------------------------------------------------------------
* EQUATIONS "BTA"
* 
EQUATIONS 27

area_BTA1 = anutz1*0.9	![m2] Achtung, hier tatsaechliche Flaechen einstellen, wenn bekannt (ansonsten "anutz1*0.9")
area_BTA2 = anutz2*0.9	![m2]
area_BTA3 = anutz3*0.9	![m2]
area_BTA4 = anutz3*0.9	![m2]

tbtasoll1 = (kuehlperiode1*tkuehlsollmin+heizperiode1*theizsollmin)*(1-gt(queber,0))+(kuehlperiode1*tkuehlsollmax+heizperiode1*theizsollmax)*gt(queber,0)	![deg C]
!tbtasoll > in "mpc_enabled.dck" (Py_ein) bzw. in "mpc_disabled.dck" (1-Py_ein) verschoben
tbtahys = kuehlperiode1*tbtahysges+heizperiode1*tbtahysges	![K]

queberh = anutzges*Qelnutzerueberschuss*JAZh*etaverth    						![W] thermische Energie in Raum
queberhPV = ge(queberh,qbtamax)*qbtamax+(1-ge(queberh,qbtamax))*(queberh)		![W]
queberhcost = lt(queberhPV,qbtamax)*(qbtamax-queberhPV)*costfunction			![W]
queberc = anutzges*Qelnutzerueberschuss*JAZc*etavertc							![W]
quebercPV = ge(queberc,qbtamaxs)*qbtamaxs+(1-ge(queberc,qbtamaxs))*(queberc)	![W]
queberccost = lt(quebercPV,qbtamaxs)*(qbtamaxs-quebercPV)*costfunction			![W]
queber = heizperiode1*(queberhPV+queberhcost)+(1-heizperiode1)*(quebercPV+queberccost)	![W]

tofl1u0 = [170,2]  ![deg C] Ruecklauftemperatur
tofl2u0 = [170,4]  ![deg C]
tofl3u0 = [170,6]  ![deg C]
tofl4u0 = [170,18] ![deg C]

tofl1o0 = [170,8]  ![deg C]
tofl2o0 = [170,10] ![deg C]
tofl3o0 = [170,12] ![deg C]
tofl4o0 = [170,20] ![deg C]

tnode1o = [56,161]  ![deg C] Temperatur Bauteilaktivierung
tnode1u = [56,162]  ![deg C]

MBTAspez = MBTAspezges  ![kg/m2h] 22 bei Fußbodenheizung, 16 bei BTA

tsystemw = qbtamax/(minbta1+minbta2+minbta3+minbta4+1)/4.18*3.6*(1-gt(queber,0))+queber/(minbta1+minbta2+minbta3+minbta4+1)/4.18*3.6*gt(queber,0)+(tofl1u0*minbta1+tofl2u0*minbta2+tofl3u0*minbta3+tofl4u0*minbta4)/(minbta1+minbta2+minbta3+minbta4+0.001)	  ![deg C]
tsystems = -qbtamaxs/(minbta1+minbta2+minbta3+minbta4+1)/4.18*3.6*(1-gt(queber,0))-queber/(minbta1+minbta2+minbta3+minbta4+1)/4.18*3.6*gt(queber,0)+(tofl1u0*minbta1+tofl2u0*minbta2+tofl3u0*minbta3+tofl4u0*minbta4)/(minbta1+minbta2+minbta3+minbta4+0.001) ![deg C]	
tsystem1 = heizperiode1*tsystemw+(1-heizperiode1)*tsystems  ![deg C]

* TRNSYS-Python-Kopplung
INCLUDE "mpc_enabled.dck"

*------------------------------------------------------------------------------
* EQUATIONS "BTA/Qend/PEB"
*
EQUATIONS 67

tsystem = Qheizbtapy/((minbta1+0.0001)*(4.18/3.6))+tofl1u0	![deg C] Qheizbtapy in W, minbta1 in kg/h, Umrechnung Waermekapazitaet 4.18 kJ/kg K von Wasser in Wh/kg K

tinbta1v = qbtamax1/MBTAspez/4.18*3.6*(1-gt(queber1,0))+qbtamax1/MBTAspez/4.18*3.6*gt(queber1,0)+tofl1u0  ![deg C]
tinbta2v = qbtamax2/MBTAspez/4.18*3.6*(1-gt(queber2,0))+qbtamax2/MBTAspez/4.18*3.6*gt(queber2,0)+tofl2u0  ![deg C]
tinbta3v = qbtamax3/MBTAspez/4.18*3.6*(1-gt(queber3,0))+qbtamax3/MBTAspez/4.18*3.6*gt(queber3,0)+tofl3u0  ![deg C]
tinbta4v = qbtamax4/MBTAspez/4.18*3.6*(1-gt(queber4,0))+qbtamax4/MBTAspez/4.18*3.6*gt(queber4,0)+tofl4u0  ![deg C] 

tinbta1 = tsystem  ![deg C] BUILDING-INPUT
tinbta2 = tsystem  ![deg C] BUILDING-INPUT
tinbta3 = tsystem  ![deg C] BUILDING-INPUT
tinbta4 = tsystem  ![deg C] BUILDING-INPUT

tinbta1ov = qbtamax1/MBTAspez/4.18*3.6*(1-gt(queber1,0))+qbtamax1/MBTAspez/4.18*3.6*gt(queber1,0)+tofl1o0  ![deg C]
tinbta2ov = qbtamax2/MBTAspez/4.18*3.6*(1-gt(queber2,0))+qbtamax2/MBTAspez/4.18*3.6*gt(queber2,0)+tofl2o0  ![deg C]
tinbta3ov = qbtamax3/MBTAspez/4.18*3.6*(1-gt(queber3,0))+qbtamax3/MBTAspez/4.18*3.6*gt(queber3,0)+tofl3o0  ![deg C]
tinbta4ov = qbtamax4/MBTAspez/4.18*3.6*(1-gt(queber4,0))+qbtamax4/MBTAspez/4.18*3.6*gt(queber4,0)+tofl4o0  ![deg C]

tinbtao1 = tsystem  ![deg C] BUILDING-INPUT
tinbtao2 = tsystem  ![deg C] BUILDING-INPUT