VERSION 18
*******************************************************************************
*** TRNSYS input file (deck) generated by TrnsysStudio
*** on Sonntag, Juni 04, 2017 at 19:23
*** from TrnsysStudio project: D:\Owncloud\Mikroquartiere\Simulation\Vorlage\eplusetrnsys\epluse_Putz\epluse16_Putz2_imported6.tpf
*** 
*** If you edit this file, use the File/Import TRNSYS Input File function in 
*** TrnsysStudio to update the project. 
*** 
*** If you have problems, questions or suggestions please contact your local 
*** TRNSYS distributor or mailto:software@cstb.fr 
*** 
*******************************************************************************


*******************************************************************************
*** Units 
*******************************************************************************

*******************************************************************************
*** Control cards
*******************************************************************************
* START, STOP and STEP
CONSTANTS 3
START=0  !13127
STOP=8760  !23375   !39384   !35040  !10176 !8760+744+28*24+744    1.7.2016, achtung auf Schaltjahr 13128.0 bis 31.8.2017   23375.0
STEP=0.25
SIMULATION 	 START	 STOP	 STEP	! Start time	End time	Time step
TOLERANCES 0.001 0.001			! Integration	 Convergence
LIMITS 30 30000 30				! Max iterations	Max warnings	Trace limit
DFQ 1					! TRNSYS numerical integration solver method
WIDTH 72				! TRNSYS output file width, number of characters
NOLIST 					! NOLIST statement
					! MAP statement
SOLVER 0 1 1				! Solver statement	Minimum relaxation factor	Maximum relaxation factor
NAN_CHECK 0				! Nan DEBUG statement
OVERWRITE_CHECK 0			! Overwrite DEBUG statement
TIME_REPORT 0			! disable time report
EQSOLVER 0				! EQUATION SOLVER statement
* User defined CONSTANTS 

*ASSIGN "Bruckverdichtet_3Zonen31cc_PHbetstatTabs.b17" 32
*ASSIGN "Bruckverdichtet_3Zonen31cc_NEHbetstatTabs.b17" 32
*ASSIGN "Bruckverdichtet_3Zonen31cc_OIBbetstatTabsV1.b17" 32
*ASSIGN "Bruckverdichtet_3Zonen31cc_OIBbetstatTabsV1_westbandG1.b17" 32
*ASSIGN "Bruckverdichtet_3Zonen31cc_PHLeichtstatTabs.b17" 32
*ASSIGN "Bruckverdichtet_3Zonen34cc_PHbetstatTabsBung.b17" 32   !Pierre, hier werden die b17, bzw. b18 files eingelesen
*ASSIGN "Bruckverdichtet_3Zonen34cc_BestbetstatTabsBung.b17" 32 !Pierre Var2
*ASSIGN "Bruckverdichtet_3Zonen31cc_NEHbetstatTabsBung.b17" 32
*ASSIGN "Bruckverdichtet_3Zonen31cc_OIBbetstatTabsBung.b17" 32

*ASSIGN "Bruckverdichtet_3Zonen31cc_PHbetstatTabsBungOhneIWSpeicher.b17" 32
*ASSIGN "Bruckverdichtet_3Zonen31cc_BestbetstatTabsBung.b17" 32
*ASSIGN "AT-Vienna-Schwechat-Air-110360.tm2" 30
*ASSIGN "Wien-Hohe_Warte-wien2015ergaenzt-hour.tm2" 30 
*ASSIGN "AT-Wien-Hohe-Warte-110350.tm2" 30 !Pierre, hier werden die Wetterdatenfiles eingelesen, bevorzugt tm2
*ASSIGN "Mannheim_DWD_warm-hour.tm2" 30 !Pierre Var2
*ASSIGN "TRY2045_Potsdam_Stadtzentrum_523938130651_Somm.tm2" 30
*ASSIGN "TRY2045_Mannheim_Stadtzentrum_494902084637_Somm.tm2" 30
*ASSIGN "Mannheim2-hour.tm2" 30
*ASSIGN "Potsdam-hour.tm2" 30
*ASSIGN "WienBoku-WienBoku2013-hour.tm2" 30
*ASSIGN "WienBoku2015V2-hour.tm2" 30
*ASSIGN "WienBoku2015-hour.tmy3" 30
*ASSIGN "WienBoku2015bis2019-hourohneSchalt.tmy3" 30   
*ASSIGN "WienBoku2017-hour.tmy3" 30
*ASSIGN "b17" 32
*ASSIGN "tm2" 30

ASSIGN "Windetc20190804.txt" 134   !unit 131
ASSIGN "SzenarioAneu.txt" 135		!unit 132

assign "Qelww_CHR55025.txt" 62   !Lasten und Elektro neu


Equations 9  !Varianten Arbeitshilfen, Beleuchtung, Personen
Persanz1=2 
Persanz2 = 0 
Persanz3=2 
Companz1=15 !A0  5 !A2  W/m˛
Companz2=0   !gang
Companz3=15 !A0  5 !A2  W/m˛
TQ1=0.03	!gut  
TQ3=0.03 !gut
LichtLeistung=8.29	!Licht0  10 !Licht1 [W/m˛]


Equations 3  !Varianten Lüftung L Nachtlüftung

fen1=0.4615384615384615    !0.461538461538462 gekippt oder 3 ganz geöffnet
fen2=0   !Anzahl öffenbar Fenster Zone 2, wenn vorhanden
fen3=0.4615384615384615

Equations 5 !Luftwechsel, Infiltration, Wirkungsgrad

fugenLuft=0.14 !Simulationsrandbedingungen
Vent1var=1.24 ! in Anlehnung an neues pdf am 9.5. von Lukas
Vent2var=0 
Vent3var=1.24 

waermerueckgimpuls=0  !0.75  !gilt auch für ohne Impuls


Equations 8  !Varianten Sonnenschutz
schattschaltaussen=1
schattzu=0.75   !S0  0 !S1 0 !S4
Schattschaltinnen=1   
Schatti=0  !S0  0,5 !S1 Achtung, ist Transmission 0   !S4
Schatti1= Schatti*schattschaltinnen 
Schatti2= Schatti*schattschaltinnen 
Schatti3= Schatti*schattschaltinnen 
strahlungsgrenze=200  !R0


equations 1  !Wärmeschutz, wenn nur mittlere Einheit, dann egal, da keine erdberührten Bauteile
terd1 = 10.4+[19,2]*(15.4-10.4)  ! Bestand: 9.9+[19,2]*(20.7-9.9) OIB:6.1+[19,2]*(19.6-6.1)  NEH:  9.6+[19,2]*(16.3-9.6) PH: 10.4+[19,2]*(15.4-10.4)  !ta+(heizperiode1*21+26*(1-heizperiode1)-ta)/2 !9.5+[19,2]*15.1  !EG, Temperaturfaktor ca. 0.5

equations 17 !Heizen Kühlen befeuchten entfeuchten
qheizmax=50
qkuehlmax=40
qbtamax=qheizmax*anutzges  !wenn impuls =0, wird über Vorlauftemperaturauswahl geregelt
qbtamaxs=qkuehlmax*anutzges  !wenn impuls =0, wird über Vorlauftemperaturauswahl geregelt

theizsollminideal=21  !20
theizsollmaxideal=25  !25
tkuehlsollminideal=50  !25
tkuehlsollmaxideal=50   !23
humsoll=0 !0.012*(1-BTAmodellein)*0+0*BTAmodellein  !BBSR
relmin=0  !40*(1-BTAmodellein)*0+0*BTAmodellein !BBSR
abshumgrenzo=0.1  !0.009	! [g/kg] Grenze fur Entfeuchtung Lüftung, achtung dazu muss man dann noch abszu ändern
abshumgrenzu=0	! [g/kg] Grenze fur Befeuchtung
tzukuehl=50  !lt(tzuquellmin,20)*20+(1-lt(tzuquellmin,20))*tzuquellmin  Ausschalten mit hohen Temperaturen
tzuheiz=0  !wenn kein Nachheizen, auf 0 setzen

absmax=0.1  !Grenze für ideale Entfeuchtung Raum

BTAmodellein=0 !BTA ein-1 und ausschalten-0
FlagTraumsoll=0  !0 - wenn fixe Temperatur, 1 wenn nach Kat I. Achtung auf Klimadaten

equations 55
tcomfneutr_MannInnSom=[3,78]   !neutrale Temperatur Mannheim Innenstadt Sommer min Temp 25°C, sonst Kat I
tcomfneutr_PotsInnSom=[3,79]   !neutrale Temperatur Potsdam Innenstadt Sommer
tcomfneutr_MannVorSom=[3,80]   !neutrale Temperatur Mannheim Vorort Sommer
tcomfneutr=eql(FlagTraumsoll,0)*tkuehlsollminideal+eql(FlagTraumsoll,1)*tcomfneutr_MannInnSom+eql(FlagTraumsoll,2)*tcomfneutr_PotsInnSom+eql(FlagTraumsoll,3)*tcomfneutr_MannVorSom
*tcomfneutr=tcomfneutr_MannInnSom
tkuehlsollminidealcomf=tcomfneutr
tkuehlsollmaxidealcomf=tcomfneutr

impuls=0   !0-normale Simulation, 1-Impuls

Windfreigabe = 0 ! 1-freigegeben
*Flexfreigabe = Flexibilitaet
*WindstromvonAnlagen = gt(ueberschuss2050,0)*Windfreigabe !gt(WindPV,(4.53*0.4)) !4530 kW ist Nennleistung; 40 % Schwelle
Windleistungmaxfreigabe=19.0994152*0.4  !
!heizidealfrei=heiz4wo
!kuehlidealfrei=kuehl4wo
heizidealfrei=1 !gt(bilanz2050,0)
kuehlidealfrei=1 !gt(bilanz2050,0)
wwidealfrei=1 !wwwo
nutzidealfrei=1 ! nutz24h

WindstromvonAnlagen = gt(wind2050,Windleistungmaxfreigabe)*Windfreigabe  !Ausgangsvariante 2050 Streicher 19.0994152 GW, APG Brainpool 34 GW sind installiert 
Windnutzbar = WindstromvonAnlagen * (WindPV-(4.53*0.3)) * Windfreigabe*0
*waermerueckgimpuls=0.75  !gilt auch für ohne
B2Grid_frei = 0  !dsm Signal
WBTA = 1 !BTA_Schedule !Zeitsignal für Freischaltung (vor allem Büros etc.)

*
*terd1 = 10.4+[19,2]*(15.4-10.4)  ! Bestand: 9.9+[19,2]*(20.7-9.9) OIB:6.1+[19,2]*(19.6-6.1)  NEH:  9.6+[19,2]*(16.3-9.6) PH: 10.4+[19,2]*(15.4-10.4)  !ta+(heizperiode1*21+26*(1-heizperiode1)-ta)/2 !9.5+[19,2]*15.1  !EG, Temperaturfaktor ca. 0.5
qpvmm=igm*0.3125*0   !Siehe Annahmen, Ansatz maximierend, W/m˛ EBF: 4 Geschosse: 0.3125, 2 Geschosse 0.625

kuehlperiode1=(gt(time,5000)*lt(time,10000))*impuls+(1-impuls)*(lt(time,6552)*gt(time,2880)+lt(time,6552+8760)*gt(time,2880+8760)+lt(time,6552+8760*2)*gt(time,2880+8760*2)+lt(time,6552+8760*3)*gt(time,2880+8760*3))
heizperiode1 = 1-kuehlperiode1 !besser mit gleitender außenluftemperatur regeln
zeitmax=[210,2]
qbtamaxw1=50+10*(gt(time,700)+gt(time,1300)+gt(time,1900)+gt(time,2500)+gt(time,3100)+gt(time,3700)+gt(time,4300)+gt(time,4900))  !gtheizperiode1*heizleistmaxideal+kuehlleistmaxideal*kuehlperiode1  !W/m˛
qbtamaxs1=10+10*(gt(time,5700)+gt(time,6200)+gt(time,6300)+gt(time,6900)+gt(time,7500)+gt(time,8100)+gt(time,8700)+gt(time,9300))  !gtheizperiode1*heizleistmaxideal+kuehlleistmaxideal*kuehlperiode1  !W/m˛
qbtamax1=qbtamaxw1*heizperiode1-qbtamaxs1*kuehlperiode1
qbtamax2=qbtamax1 !heizperiode1*heizleistmaxideal+kuehlleistmaxideal*kuehlperiode1
qbtamax3=qbtamax1 !heizperiode1*heizleistmaxideal+kuehlleistmaxideal*kuehlperiode1
*qbtamax=50*anutzges  !wenn impuls =0, wird über Vorlauftemperaturauswahl geregelt
*qbtamaxs=40*anutzges  !wenn impuls =0, wird über Vorlauftemperaturauswahl geregelt
tbtahysges=0.1
*theizsollminideal=21  !20
*theizsollmaxideal=25  !25
*tkuehlsollminideal=50  !25
*tkuehlsollmaxideal=50   !23
*humsoll = 0 !0.012*(1-BTAmodellein)*0+0*BTAmodellein  !BBSR
*relmin = 0  !40*(1-BTAmodellein)*0+0*BTAmodellein !BBSR
*abshumgrenzo = 0.1  !0.009	! [g/kg] Grenze fur Entfeuchtung Lüftung, achtung dazu muss man dann noch abszu ändern
*abshumgrenzu = 0.0	! [g/kg] Grenze fur Befeuchtung
*tzukuehl = 50  !lt(tzuquellmin,20)*20+(1-lt(tzuquellmin,20))*tzuquellmin  Ausschalten mit hohen Temperaturen
*tzuheiz = 0  !wenn kein Nachheizen, auf 0 setzen

theizsollmin=theizsollminideal-tbtahysges/2
theizsollmax=theizsollmaxideal-tbtahysges/2
tkuehlsollmin=tkuehlsollminidealcomf-tbtahysges/2
tkuehlsollmax=tkuehlsollmaxidealcomf-tbtahysges/2
queber1w=gt(time,100)*lt(time,301)+gt(time,700)*lt(time,901)+gt(time,1300)*lt(time,1501)+gt(time,1900)*lt(time,2101)+gt(time,2500)*lt(time,2701)+gt(time,3100)*lt(time,3301)+gt(time,3700)*lt(time,3901)+gt(time,4300)*lt(time,4501)+gt(time,4900)*lt(time,5001)  
queber1s=gt(time,5100)*lt(time,5301)+gt(time,5700)*lt(time,5901)+gt(time,6300)*lt(time,6501)+gt(time,6900)*lt(time,7101)+gt(time,7500)*lt(time,7701)+gt(time,8100)*lt(time,8301)+gt(time,8700)*lt(time,8901)+gt(time,9300)*lt(time,9501)+gt(time,9900)*lt(time,10101)  
queber1=queber1w*heizperiode1+queber1s*kuehlperiode1
queber2=queber1
queber3=queber1
zeit1impuls=24
zeit2impuls=300
heizleistmaxideal=20+10*zeitmax
kuehlleistmaxideal=10+10*zeitmax

*sonstige Var
fenluftsomm=1
*Schattschaltaussen=0.8
*Schattschaltinnen=0
*Vent1var=0.5 
*Vent2var=0. 
*Vent3var=0.5 
Qelvar=QelHH*0.5 !(Qel1*anutz1+Qel2*anutz2+Qel3*anutz3)/anutzges  !([3,44]+[3,45]+[3,46]+[3,47]+[3,48]+(licht3*anutz3)/1000+[3,50]+[3,51]+[3,52])*1000/anutz3 !Geräte pro Haushalt Profil1 mit Beleuchtung ohne Hilfsstrom ohne Heizen/kühlen in W/m˛
Qwwnutzvar=QWW_HH*0.5 !12.75/0.8*1000/8760 ![3,40]*1000/anutz3 !WWprofil in W/m˛
QelAbwvar=Qel*0.8 !QelabwHH !Abwärme von Haushaltsgeräten in W/m˛
SpeicherWW=1  !1-es gibt WW Speicher, 0- es gibt keinen
Qww_Speichermaxvar=120    !liter
qwwwpmaxvar=50  !W/m˛
JAZh=3
JAZc=3
JAZww=2.5
etaverth=0.9
etavertc=0.9
etavertww=0.7


MBTAspezges=16  !kg/h/m˛ 22 bei fußbodenheizung, 16 bei BTA
qv1=[56,19]/anutz1/3.6

*------------------------------------------------------------------------------


* EQUATIONS "Schedule"
* 
EQUATIONS 11
wluft = [3,76]  ![56,50] Profil geändert, 6 bis 18 Uhr durchgehend
use = [3,77] ![56,45]  !Büronutzung, 0.5 am Anfang und Ende
lichtuse = use
wohnwoche = [56,46]
wrestaurante = [56,56]
wveranstaltung = [56,57]
wseminar = [56,58]
wkueche = [56,60]
wnatluft = [56,47]
BTA_Schedule=[56,59]
wschlaf=[56,61]
*$UNIT_NAME Schedule
*$LAYER Main
*$POSITION 199 194
*------------------------------------------------------------------------------


* EQUATIONS "Inf"
* 
EQUATIONS 18
*fugenLuft = 0.042
nluft1 = (100*(abs(tzone1-ta))**0.5*(fen1*1.23*1.9*1.9**0.5))/vol1  !nach Lukas. Kippstellung bei fen1 berücksichtigen 
nluft2 = (100*(abs(tzone2-ta))**0.5*(fen2*1.23*1.9*1.9**0.5))/vol1
nluft3 = (100*(abs(tzone3-ta))**0.5*(fen3*1.23*1.9*1.9**0.5))/vol3
*nluft1 = (0.7*100*(abs(tzone1-ta))**0.5*(fen1*0.8*1.3*1.3**0.5))/vol1  !10cm Rahmen umseitig abgezogen
*nluft2 = (0.7*100*(abs(tzone2-ta))**0.5*(fen2*0.8*1.3*1.3**0.5))/vol1
*nluft3 = (0.7*100*(abs(tzone3-ta))**0.5*(fen3*0.8*1.3*1.3**0.5))/vol3
fugenLuftBestand = 0.042
nluftstand = 0
nluftbuero = 0
tcontr1 = [20,1]
tcontr2 = [21,1]
tcontr3 = [22,1]
Inf1 = fugenLuft + (nluft1*somm*tcontr1*wnatluft)+(nluft1*(1-somm)*tcontr1*wnatluft)*fenluftsomm ! 1/h hier noch an regelung von Lukas anpassen: Entscheidung immer von Stand 18 Uhr abhängig, Taussen >=26°C
Inf2 = fugenLuft + (nluft2*somm*tcontr2*wnatluft)+(nluft2*(1-somm)*tcontr2*wnatluft)*fenluftsomm ! 1/h
Inf3 = fugenLuft + (nluft3*somm*tcontr3*wnatluft)+(nluft3*(1-somm)*tcontr3*wnatluft)*fenluftsomm ! 1/h
winterUnterGrenze = -2
sommerUnterGrenze = -2
querhyst = winterUnterGrenze*(1-somm)+sommerUnterGrenze*somm
winterOberGrenze = 25
sommerOberGrenze = 24
querob = winterOberGrenze*(1-somm)+sommerOberGrenze*somm  !49

*------------------------------------------------------------------------------

* EQUATIONS "IW"
* 
EQUATIONS 34
QelHH=[334,1]*1000/anutzges
QelflexHH=[334,2]*1000/anutzges
QelabwteilHH=[334,3]*1000/anutzges
QelabwHH=[334,4]*1000/anutzges
QWW_HH=[334,5]*4.19/3.6*(38-10)/anutzges
PersHH=[334,6]

redukpers = 1
*Persanz1 = 2 !Annahme, dass Personen gleich auf die beiden Zonen des Haushalts aufgeteilt werden
*Persanz2 = 0 
*Persanz3 = 2 
Pers1 = 0*impuls+(1-impuls)*use*Persanz1 ![3,11]*Persanz1
Pers2 = 0*impuls+(1-impuls)*use*Persanz2
Pers3 = 0*impuls+(1-impuls)*use*Persanz3 ![3,53]*Persanz3
*Pers1 = 0*impuls+(1-impuls)*PersHH/2 ![3,11]*Persanz1
*Pers2 = 0 ![3,25]*Persanz2
*Pers3 = 0*impuls+(1-impuls)*PersHH/2 ![3,53]*Persanz3

*Companz1=15 !A0  5 !A2
*Companz2=0
*Companz3=15 !A0  5 !A2

Comp1 = companz1*use !A0  5*use !A2 (2.78-0.5*qdampf*ilf1/3.6)*impuls+(1-impuls)*(QelAbw-0.5*qdampf*ilf1/3.6) ! 2.78-0.5*qdampf*ilf1/3.6 !qelabw1	!Wichtig: Bezieht sich auf 1W/m˛!!!		, 2,78 bleiben netto übrig, halbe Feuchte sind Personen
Comp2 = companz2*0 !(2.78-0.5*qdampf*ilf2/3.6)*impuls+(1-impuls)*(QelAbw-0.5*qdampf*ilf2/3.6) !2.78-0.5*qdampf*ilf2/3.6 !qelabw2			
Comp3 = companz3*use !A0  5*use !A2  (2.78-0.5*qdampf*ilf3/3.6)*impuls+(1-impuls)*(QelAbw-0.5*qdampf*ilf3/3.6) !2.78-0.5*qdampf*ilf3/3.6 !qelabw3

*Comp1 = (2.78-0.5*qdampf*ilf1/3.6)*impuls+(1-impuls)*(QelAbw-0.5*qdampf*ilf1/3.6) ! 2.78-0.5*qdampf*ilf1/3.6 !qelabw1	!Wichtig: Bezieht sich auf 1W/m˛!!!		, 2,78 bleiben netto übrig, halbe Feuchte sind Personen
*Comp2 = (2.78-0.5*qdampf*ilf2/3.6)*impuls+(1-impuls)*(QelAbw-0.5*qdampf*ilf2/3.6) !2.78-0.5*qdampf*ilf2/3.6 !qelabw2			
*Comp3 = (2.78-0.5*qdampf*ilf3/3.6)*impuls+(1-impuls)*(QelAbw-0.5*qdampf*ilf3/3.6) !2.78-0.5*qdampf*ilf3/3.6 !qelabw3

*TQ1 = 0.03	!gut  !BBSR für unterschiedliche Fenstergrößen anpassen
TQ2 = 0.06	!mittel
*TQ3 = 0.03 !gut
TQ4 = 0.01	!schlecht
Iglobal1 = 100*TQ1*idh	! [Umrechnung von Watt in Lux]
Iglobal2 = 100*TQ2*idh
Iglobal3 = 100*TQ3*idh
Iglobal4 = 100*TQ4*igh
Iglobal42 = 100*TQ4*igh*(1-Schatth2)

lichtcontr1 = lt(iglobal1,300) 
lichtcontr2 = lt(iglobal2,300) 
lichtcontr3 = lt(iglobal3,300)
dimfakt = 1 	!nicht implementiert, siehe Post
dimfaktInnen = 1
*LichtLeistung = 5	!Licht0  10 !Licht1 [W/m˛]
LichtLeistungBestand = 20	!W/m˛
Licht1 = LichtLeistung*(lichtcontr1)*use*dimfakt	! [W/m˛] Achtung, Sonnenschutz berücksichtigen bei hohen Helligkeitsanforderungen
Licht2 = LichtLeistung*0.25*use*dimfakt
Licht3 = LichtLeistung*(lichtcontr3)*use*dimfakt
*Licht1 = Lichtbasis*(lichtcontr1)*pers1*(1-wschlaf)*dimfakt	! [W/m˛] Achtung, Sonnenschutz berücksichtigen bei hohen Helligkeitsanforderungen
*Licht2 = Lichtbasis*(lichtcontr2)*pers2*(1-wschlaf)*dimfakt
*Licht3 = Lichtbasis*(lichtcontr3)*pers3*(1-wschlaf)*dimfakt
Lichtbasis = 1 !2.5 !LichtLeistung*lichtuse
ifeuchtm2 = 0! 0.002 !(0.05*gt(igh,5)+(1-gt(igh,5))*0.005*(lt(time,3624)+gt(time,7296)))/25  !Pflanzen, Wäsche ist noch extra zu berücksichtigen
ilf1 = ifeuchtm2
ilf2 = ifeuchtm2
ilf3 = ifeuchtm2


* EQUATIONS "heiz"
* 
EQUATIONS 18
GSC=1
Theiz = (impuls*(tbtasoll)+(1-impuls)*theizsollminideal)*(1-BTAmodellein)+BTAmodellein*0
theizsom = 15*(1-BTAmodellein)+BTAmodellein*0
Heiz1 = Theiz*heizperiode1+(1-heizperiode1)*theizsom*0	
Heiz2 = Theiz*heizperiode1+(1-heizperiode1)*theizsom*0 
Heiz3 = Theiz*heizperiode1+(1-heizperiode1)*theizsom*0 
mheiz = 7
dheiz = -5
mheizp = 4.4
dheizp = -2
theizvormit = 28
hfakreduk = 0.85 !Faktor für Flächenreduktion etc. global
HEIZMAX1 = (impuls*qbtamax1+(1-impuls)*(1000*(1-GSC)+33.75*heizidealfrei*GSC))*anutz1 ! Anutz1*(mheiz*(theizvormit-TZone1)+dheiz)*hfakreduk
HEIZMAX2 = (impuls*qbtamax2+(1-impuls)*(1000*(1-GSC)+33.75*heizidealfrei*GSC))*anutz2 ! Anutz2*(mheizp*(theizvormit-TZone2)+dheizp)*hfakreduk
HEIZMAX3 = (impuls*qbtamax3+(1-impuls)*(1000*(1-GSC)+33.75*heizidealfrei*GSC))*anutz3 ! Anutz3*(mheizp*(theizvormit-TZone3)+dheizp)*hfakreduk
relmin1 = relmin
relmin2 = relmin
relmin3 = relmin

* EQUATIONS "kuehl"
* 
EQUATIONS 21
tkuehlges = (impuls*((tbtasoll)*(1-heizperiode1)+50*heizperiode1)+(1-impuls)*(tkuehlsollminidealcomf*(1-heizperiode1)+heizperiode1*50))*(1-BTAmodellein)+BTAmodellein*50 !25-wkuehlvor*2*0
tkuehlgesfb = 24*(1-BTAmodellein)+BTAmodellein*50 !25-wkuehlvor*1

Tkuehl1 = tkuehlges	! Solltemperaturen Kühlen [°C]	
Tkuehl2 = tkuehlges 
Tkuehl3 = tkuehlges 
mkuehl = 7     !Abbildung Verlauf Leistungsabgabe bei Flächenheizungen (meist in Abhängigkeit von Differenz Raumtemperatur zu BTA_Mitteltemperatur (Differenz Vorlauf / Rücklauf)
mkuehlfb = 4.4
dkuehl = 5
dkuehlfb = 0
mkuehlp = 6
dkuehlp = 0
ttau2 = [332,8]
ttau2grenz = ttau2+2
tkuehlvormit = lt(ttau2grenz,19)*19+(1-lt(ttau2grenz,19))*ttau2grenz
kfakreduk = 0.85 !Faktor für Flächenreduktion etc. global
kuehlmax1 = (-impuls*qbtamax1*(1-heizperiode1)+(1-impuls)*(1000*(1-GSC)+40.5*kuehlidealfrei*GSC))*anutz1 ! Anutz1*(mkuehlp*(TZone1-tkuehlvormit)+dkuehlp)*kfakreduk
kuehlmax2 = (-impuls*qbtamax2*(1-heizperiode1)+(1-impuls)*(1000*(1-GSC)+40.5*kuehlidealfrei*GSC))*anutz2 ! Anutz2*(mkuehlp*(TZone2-tkuehlvormit)+dkuehlp)*kfakreduk
kuehlmax3 = (-impuls*qbtamax3*(1-heizperiode1)+(1-impuls)*(1000*(1-GSC)+40.5*kuehlidealfrei*GSC))*anutz3 ! Anutz3*(mkuehlp*(TZone3-tkuehlvormit)+dkuehlp)*kfakreduk
*absmax = 0.012  !Grenze für ideale Entfeuchtung Raum
absmax1 = absmax
absmax2 = absmax
absmax3 = absmax


UNIT 210 TYPE 14	 Impulse
*$UNIT_NAME Sommer
*$MODEL .\Utility\Forcing Functions\General\Type14h.tmf
*$POSITION 102 501
*$LAYER Main # # # # # # # # # # # # # # # # 
PARAMETERS 48
0		! 1 Initial value of time
0.0		! 2 Initial value of function
100		! 3 Time at point-1
0		! 4 Value at point -1
101		! 5 Time at point-2
1		! 6 Value at point -2
300		! 7 Time at point-3
1		! 8 Value at point -3
301		! 9 Time at point-4
0		! 10 Value at point -4
600		! 1 Initial value of time
0.0		! 2 Initial value of function
601		! 3 Time at point-1
1		! 4 Value at point -1
700		! 3 Time at point-1
1		! 4 Value at point -1
701		! 5 Time at point-2
2		! 6 Value at point -2
900		! 7 Time at point-3
2		! 8 Value at point -3
901		! 9 Time at point-4
1		! 10 Value at point -4
1200		! 1 Initial value of time
1		! 2 Initial value of function
1201		! 3 Time at point-1
2		! 4 Value at point -1
1300		! 5 Time at point-2
2		! 6 Value at point -2
1301		! 5 Time at point-2
3		! 6 Value at point -2
1500		! 7 Time at point-3
3		! 8 Value at point -3
1501		! 9 Time at point-4
2		! 10 Value at point -4
1800		! 1 Initial value of time
2		! 2 Initial value of function
1801		! 1 Initial value of time
3		! 2 Initial value of function
1900		! 3 Time at point-1
3		! 4 Value at point -1
1901		! 5 Time at point-2
4		! 6 Value at point -2
2100		! 7 Time at point-3
4		! 8 Value at point -3
2101		! 9 Time at point-4
3		! 10 Value at point -4
2400		! 9 Time at point-4
3		! 10 Value at point -4

UNIT 131 TYPE 9	 Type9e
*$UNIT_NAME Type9e
*$MODEL .\Utility\Data Readers\Generic Data Files\Expert Mode\Free Format\Type9e.tmf
*$POSITION 752 127
*$LAYER Weather - Data Files # 
!TRACE START STOP
PARAMETERS 106
5		! 1 Mode
4		! 2 Header Lines to Skip
25		! 3 No. of values to read
1.0		! 4 Time interval of data
-1		! 5 Interpolate or not-1
1.0		! 6 Multiplication factor-1
0		! 7 Addition factor-1
0		! 8 Average or instantaneous value-1
-1		! 9 Interpolate or not-2
1.0		! 10 Multiplication factor-2
0		! 11 Addition factor-2
0		! 12 Average or instantaneous value-2
-1		! 13 Interpolate or not-3
1.0		! 14 Multiplication factor-3
0		! 15 Addition factor-3
0		! 16 Average or instantaneous value-3
-1		! 17 Interpolate or not-4
1.0		! 18 Multiplication factor-4
0		! 19 Addition factor-4
0		! 20 Average or instantaneous value-4
-1		! 21 Interpolate or not-5
1.0		! 22 Multiplication factor-5
0		! 23 Addition factor-5
0		! 24 Average or instantaneous value-5
-1		! 25 Interpolate or not-6
1.0		! 26 Multiplication factor-6
0		! 27 Addition factor-6
0		! 28 Average or instantaneous value-6
-1		! 29 Interpolate or not-7
1.0		! 30 Multiplication factor-7
0		! 31 Addition factor-7
0		! 32 Average or instantaneous value-7
-1		! 33 Interpolate or not-8
1.0		! 34 Multiplication factor-8
0		! 35 Addition factor-8
0		! 36 Average or instantaneous value-8
-1		! 37 Interpolate or not-9
1.0		! 38 Multiplication factor-9
0		! 39 Addition factor-9
0		! 40 Average or instantaneous value-9
-1		! 41 Interpolate or not-10
1.0		! 42 Multiplication factor-10
0		! 43 Addition factor-10
0		! 44 Average or instantaneous value-10
-1		! 45 Interpolate or not-11
1.0		! 46 Multiplication factor-11
0		! 47 Addition factor-11
0		! 48 Average or instantaneous value-11
-1		! 49 Interpolate or not-12
1.0		! 50 Multiplication factor-12
0		! 51 Addition factor-12
0		! 52 Average or instantaneous value-12
-1		! 53 Interpolate or not-13
1.0		! 54 Multiplication factor-13
0		! 55 Addition factor-13
0		! 56 Average or instantaneous value-13
-1		! 57 Interpolate or not-14
1.0		! 58 Multiplication factor-14
0		! 59 Addition factor-14
0		! 60 Average or instantaneous value-14
-1		! 61 Interpolate or not-15
1.0		! 62 Multiplication factor-15
0		! 63 Addition factor-15
0		! 64 Average or instantaneous value-15
-1		! 65 Interpolate or not-16
1.0		! 66 Multiplication factor-16
0		! 67 Addition factor-16
1		! 68 Average or instantaneous value-16
-1		! 69 Interpolate or not-17
1.0		! 70 Multiplication factor-17
0		! 71 Addition factor-17
1		! 72 Average or instantaneous value-17
1		! 73 Interpolate or not-18
1.0		! 74 Multiplication factor-18
0		! 75 Addition factor-18
1		! 76 Average or instantaneous value-18
-1		! 77 Interpolate or not-19
1.0		! 78 Multiplication factor-19
0		! 79 Addition factor-19
1		! 80 Average or instantaneous value-19
-1		! 81 Interpolate or not-20
1.0		! 82 Multiplication factor-20
0		! 83 Addition factor-20
1		! 84 Average or instantaneous value-20
-1		! 85 Interpolate or not-21
1.0		! 86 Multiplication factor-21
0		! 87 Addition factor-21
1		! 88 Average or instantaneous value-21
-1		! 89 Interpolate or not-22
1.0		! 90 Multiplication factor-22
0		! 91 Addition factor-22
1		! 92 Average or instantaneous value-22
-1		! 93 Interpolate or not-23
1.0		! 94 Multiplication factor-23
0		! 95 Addition factor-23
1		! 96 Average or instantaneous value-23
-1		! 97 Interpolate or not-24
1.0		! 98 Multiplication factor-24
0		! 99 Addition factor-24
1		! 100 Average or instantaneous value-24
-1		! 101 Interpolate or not-25
1.0		! 102 Multiplication factor-25
0		! 103 Addition factor-25
1		! 104 Average or instantaneous value-25
134		! 121 Logical unit for input file
-1		! 65 Free format mode
*** External files

UNIT 132 TYPE 9	 Type9e
*$UNIT_NAME Type9e
*$MODEL .\Utility\Data Readers\Generic Data Files\Expert Mode\Free Format\Type9e.tmf
*$POSITION 752 127
*$LAYER Weather - Data Files # 
!TRACE START STOP
PARAMETERS 126
5		! 1 Mode
3		! 2 Header Lines to Skip
30		! 3 No. of values to read
1.0		! 4 Time interval of data
-1		! 5 Interpolate or not-1
1.0		! 6 Multiplication factor-1
0		! 7 Addition factor-1
0		! 8 Average or instantaneous value-1
-1		! 9 Interpolate or not-2
1.0		! 10 Multiplication factor-2
0		! 11 Addition factor-2
0		! 12 Average or instantaneous value-2
-1		! 13 Interpolate or not-3
1.0		! 14 Multiplication factor-3
0		! 15 Addition factor-3
0		! 16 Average or instantaneous value-3
-1		! 17 Interpolate or not-4
1.0		! 18 Multiplication factor-4
0		! 19 Addition factor-4
0		! 20 Average or instantaneous value-4
-1		! 21 Interpolate or not-5
1.0		! 22 Multiplication factor-5
0		! 23 Addition factor-5
0		! 24 Average or instantaneous value-5
-1		! 25 Interpolate or not-6
1.0		! 26 Multiplication factor-6
0		! 27 Addition factor-6
0		! 28 Average or instantaneous value-6
-1		! 29 Interpolate or not-7
1.0		! 30 Multiplication factor-7
0		! 31 Addition factor-7
0		! 32 Average or instantaneous value-7
-1		! 33 Interpolate or not-8
1.0		! 34 Multiplication factor-8
0		! 35 Addition factor-8
0		! 36 Average or instantaneous value-8
-1		! 37 Interpolate or not-9
1.0		! 38 Multiplication factor-9
0		! 39 Addition factor-9
0		! 40 Average or instantaneous value-9
-1		! 5 Interpolate or not-1
1.0		! 6 Multiplication factor-1
0		! 7 Addition factor-1
0		! 8 Average or instantaneous value-1
-1		! 9 Interpolate or not-2
1.0		! 10 Multiplication factor-2
0		! 11 Addition factor-2
0		! 12 Average or instantaneous value-2
-1		! 13 Interpolate or not-3
1.0		! 14 Multiplication factor-3
0		! 15 Addition factor-3
0		! 16 Average or instantaneous value-3
-1		! 17 Interpolate or not-4
1.0		! 18 Multiplication factor-4
0		! 19 Addition factor-4
0		! 20 Average or instantaneous value-4
-1		! 21 Interpolate or not-5
1.0		! 22 Multiplication factor-5
0		! 23 Addition factor-5
0		! 24 Average or instantaneous value-5
-1		! 25 Interpolate or not-6
1.0		! 26 Multiplication factor-6
0		! 27 Addition factor-6
0		! 28 Average or instantaneous value-6
-1		! 29 Interpolate or not-7
1.0		! 30 Multiplication factor-7
0		! 31 Addition factor-7
0		! 32 Average or instantaneous value-7
-1		! 33 Interpolate or not-8
1.0		! 34 Multiplication factor-8
0		! 35 Addition factor-8
0		! 36 Average or instantaneous value-8
-1		! 37 Interpolate or not-9
1.0		! 38 Multiplication factor-9
0		! 39 Addition factor-9
0		! 40 Average or instantaneous value-9
-1		! 5 Interpolate or not-1
1.0		! 6 Multiplication factor-1
0		! 7 Addition factor-1
0		! 8 Average or instantaneous value-1
-1		! 9 Interpolate or not-2
1.0		! 10 Multiplication factor-2
0		! 11 Addition factor-2
0		! 12 Average or instantaneous value-2
-1		! 13 Interpolate or not-3
1.0		! 14 Multiplication factor-3
0		! 15 Addition factor-3
0		! 16 Average or instantaneous value-3
-1		! 17 Interpolate or not-4
1.0		! 18 Multiplication factor-4
0		! 19 Addition factor-4
0		! 20 Average or instantaneous value-4
-1		! 21 Interpolate or not-5
1.0		! 22 Multiplication factor-5
0		! 23 Addition factor-5
0		! 24 Average or instantaneous value-5
-1		! 25 Interpolate or not-6
1.0		! 26 Multiplication factor-6
0		! 27 Addition factor-6
0		! 28 Average or instantaneous value-6
-1		! 29 Interpolate or not-7
1.0		! 30 Multiplication factor-7
0		! 31 Addition factor-7
0		! 32 Average or instantaneous value-7
-1		! 33 Interpolate or not-8
1.0		! 34 Multiplication factor-8
0		! 35 Addition factor-8
0		! 36 Average or instantaneous value-8
-1		! 37 Interpolate or not-9
1.0		! 38 Multiplication factor-9
0		! 39 Addition factor-9
0		! 40 Average or instantaneous value-9
-1		! 5 Interpolate or not-1
1.0		! 6 Multiplication factor-1
0		! 7 Addition factor-1
0		! 8 Average or instantaneous value-1
-1		! 9 Interpolate or not-2
1.0		! 10 Multiplication factor-2
0		! 11 Addition factor-2
0		! 12 Average or instantaneous value-2
-1		! 13 Interpolate or not-3
1.0		! 14 Multiplication factor-3
0		! 15 Addition factor-3
0		! 16 Average or instantaneous value-3
135		! 121 Logical unit for input file
-1		! 65 Free format mode



equations 30
bedarf2050=[132,1]
biomasse2050=[132,2]
wasser2050=[132,3]
solar2050=[132,4]
wind2050=[132,5]
EEges2050=[132,6]
ueberschuss2050=[132,7]
unterschuss2050=[132,8]
bilanz2050=[132,9]
Kostideal=[132,10]
Lastheizideal=[132,11]
heiz24h=[132,12]
heizWo=[132,13]
heiz2Wo=[132,14]
heiz4Wo=[132,15]
Lastkuehlideal=[132,16]
kuehl24h=[132,17]
kuehlWo=[132,18]
kuehl2Wo=[132,19]
kuehl4Wo=[132,20]
LastWWideal=[132,21]
WW24h=[132,22]
WWWo=[132,23]
WW2Wo=[132,24]
WW4Wo=[132,25]
Lastnutzideal=[132,26]
nutz24h=[132,27]
nutzWo=[132,28]
nutz2Wo=[132,29]
nutz4Wo=[132,30]




* EQUATIONS "Klima"
* 
EQUATIONS 80
ta = (-4.8*heizperiode1+26.3*kuehlperiode1)*impuls+(1-impuls)*[109,1]
relha = (80*heizperiode1+65*kuehlperiode1)*impuls+(1-impuls)*[109,7]
absa = (0.003*heizperiode1+0.012*kuehlperiode1)*impuls+(1-impuls)*[109,6]
tsky = (ta-11)*impuls+(1-impuls)*[109,4]
tsgrd = ta
twasgrd = [109,5]
Ttau = [109,2]
Twetbaulb = [109,3]
* siehe oben   terd1 = 9.9+[19,2]*(20.7-9.9)  ! Bestand: 9.9+[19,2]*(20.7-9.9) OIB:6.1+[19,2]*(19.6-6.1)  NEH:  9.6+[19,2]*(16.3-9.6) PH: 10.4+[19,2]*(15.4-10.4)  !ta+(heizperiode1*21+26*(1-heizperiode1)-ta)/2 !9.5+[19,2]*15.1  !EG, Temperaturfaktor ca. 0.5
terd2 = 10 !11.04+[19,2]*16.4  !UG
terd3 = 10 !11.04+[19,2]*16.4
Tewtphpp = 7.1+[19,2]*7
GRD_REFL = 0.2  ! Sehr gefährlich, unbedingt Input checken[109,91]
wind = [109,8]
winddir = [109,9]
druck = [109,10]  !atm  !11
TURN = 0
HEMISPHERE = 1 ! northern hemisphere: 1  - southern hemisphere: -1
AA_H_0_0 = 0  ! azimuth angle of orientation
AA_S_0_90 = (0  +TURN)*GT(HEMISPHERE,0)+ (180-0 -TURN)*NOT(GT(HEMISPHERE,0)) ! azimuth angle of orientation
AA_W_90_90 = (90 +TURN)*GT(HEMISPHERE,0)+ (180-90-TURN)*NOT(GT(HEMISPHERE,0)) ! azimuth angle of orientation
AA_N_180_90 = (180+TURN)*GT(HEMISPHERE,0)+ (180-180-TURN)*NOT(GT(HEMISPHERE,0)) ! azimuth angle of orientation
AA_E_270_90 = (270+TURN)*GT(HEMISPHERE,0)+ (180-270-TURN)*NOT(GT(HEMISPHERE,0)) ! azimuth angle of orientation
AA_W2 = (90 +TURN)*GT(HEMISPHERE,0)+ (180-45-TURN)*NOT(GT(HEMISPHERE,0)) ! azimuth angle of orientation
AA_N2 = (180+TURN)*GT(HEMISPHERE,0)+ (180-135-TURN)*NOT(GT(HEMISPHERE,0)) ! azimuth angle of orientation
AA_E2 = (270+TURN)*GT(HEMISPHERE,0)+ (180-225-TURN)*NOT(GT(HEMISPHERE,0)) ! azimuth angle of orientation
AA_S2 = (0+TURN)*GT(HEMISPHERE,0)+ (180-315-TURN)*NOT(GT(HEMISPHERE,0)) ! azimuth angle of orientation